FoamFile
{
    version     2.0;
    format      ascii;
    class       dictionary;
    object      fvSolution;
}

solvers
{
    p
    {
        solver          GAMG;
        tolerance       1e-7;
        relTol          0.1;
        smoother        GaussSeidel;
    }

    U
    {
        solver          smoothSolver;
        smoother        GaussSeidel;
        tolerance       1e-6;
        relTol          0.1;
    }

    pFinal
    {
        $p;
        relTol  0;
    }

    UFinal
    {
        $U;
        relTol  0;
    }
}

PIMPLE
{
    nOuterCorrectors     2;
    nCorrectors         2;
    nNonOrthogonalCorrectors 0;

    residualControl
    {
        p               1e-4;
        U               1e-5;
    }
}

relaxationFactors
{
    fields
    {
        p               0.3;
    }

    equations
    {
        U               0.7;
        k               0.7;
        omega           0.7;
    }
}
