FoamFile
{
    version     2.0;
    format      ascii;
    class       dictionary;
    object      fvSchemes;
}

ddtSchemes
{
    default         steadyState;
}

gradSchemes
{
    default         Gauss linear;
}

wallDist
{
    method          meshWave;
}


divSchemes
{
    div(phi,U)      Gauss upwind;
    div(phi,k)      Gauss upwind;
    div(phi,omega)  Gauss upwind;
    div(phi,nuTilda) Gauss upwind;

    div((nuEff*dev2(T(grad(U))))) Gauss linear;
}

laplacianSchemes
{
    default         Gauss linear corrected;
}

interpolationSchemes
{
    default         linear;
}

snGradSchemes
{
    default         corrected;
}
